* C:\Users\bakad\source\repos\fanControl\PCB\Vin_mon_WCA.asc
V1 S 0 12
B§V2 PSU_en 0 V{if(V(S)>7,5.5,0)}
R3 PSU_en B {WC1(22k,0.01,1)}
R4 B 0 {WC1(10k,0.05,2)}
M2 D G S S BSS84
Q1 G B E 0 BC847B_WCA
C1 Vin_mon 0 10n
D1 0 Vin_mon BZX84-C3V3
R2 D Vin_mon {WC1(22k,0.01,5)}
R6 Vin_mon 0 {WC1(3k,0.01,6)}
R5 S G {WC1(10k,0.05,3)}
R1 E 0 {WC1(1k,0.05,4)}
V3 STEPPING 0 {STEPPING}
.model D D
.lib C:\Users\bakad\OneDrive\Dokumentumok\LTspiceXVII\lib\cmp\standard.dio
.model NPN NPN
.model PNP PNP
.lib C:\Users\bakad\OneDrive\Dokumentumok\LTspiceXVII\lib\cmp\standard.bjt
.model NMOS NMOS
.model PMOS PMOS
.lib C:\Users\bakad\OneDrive\Dokumentumok\LTspiceXVII\lib\cmp\standard.mos
.dc V1 0 40 0.1
* .tran 5m startup
* https://electronics.stackexchange.com/questions/546121/placement-of-mosfets-in-switchable-voltage-divider-for-voltage-measurements
***********************************************************
*
* BZX84-C3V3
*
* Nexperia
*
* Voltage regulator diodes
* VFmax = 0,9V    @ IF = 10mA
* IRmax = 5ÂµA     @ VR = 1V
* VZmax = 3,5V    @ IZ = 5mA
* IZSM  = 6A      @ tp = 100Âµs
*
*
*
* Package pinning does not match Spice model pinning.
* Package: SOT23
*
* Package Pin 1: Anode
* Package Pin 2: Not Connected
* Package Pin 3: Cathode
*
*
* Extraction date (week/year): #
* Simulator: PSPICE
*
***********************************************************
*
.MODEL BZX84-C3V3 D
+ IS = 7.035E-16
+ N = 0.9809
+ BV = 3.3
+ IBV = 0.005
+ RS = 0.3487
+ CJO = 3.162E-10
+ VJ = 0.6687
+ M = 0.3164
+ FC = 0.5
.ENDS
*
.FUNC MOD(a,b) {a-FLOOR(a/b)*b}
.FUNC BIT(x) {if(MOD(STEPPING,2**(X+1))>=2**x,1,0)}
.FUNC EVA1 (nom, tol, param_num) {if(STEPPING == -1, nom, nom*(1-tol)+2*nom*tol*BIT(param_num))}
.FUNC EVA2 (nom, min, max, param_num) {if(STEPPING == -1, nom, IF(BIT(param_num),max,min))}
.FUNC WC1 (nom, tol, param_num) EVA1(nom, tol, param_num)
.FUNC WC2 (nom, min, max, param_num) EVA2(nom, min, max, param_num)
.step param STEPPING -1 63 1
.model BC847B_WCA NPN(IS=1.822E-14 NF=0.9932 ISE=2.894E-16 NE=1.4 BF={WC2(200,290,450,0)} IKF=0.109 VAF=82 NR=0.9931 ISC=9.982E-12 NC=1.763 BR=8.29 IKR=0.09 VAR=17.9 RB=10 IRB=5.00E-06 RBM=5 RE=0.649 RC=0.7014 XTB=0 EG=1.11 XTI=3 CJE=1.244E-11 VJE=0.7579 MJE=0.3656 TF=4.908E-10 XTF=9.51 VTF=2.927 ITF=0.3131 PTF=0 CJC=3.347E-12 VJC=0.5463 MJC=0.391 XCJC=0.6193 TR=9.00E-08 CJS=0 VJS=0.75 MJS=0.333 FC=0.979 Vceo=45 Icrating=100m mfg=NXP)
.model BC847A_WCA NPN(IS=9.677E-15 NF=0.9922 ISE=5.44E-15 NE=2 BF={WC2(110,180,220,0)} IKF=0.14 VAF=143.8 NR=0.9935 ISC=5.236E-12 NC=1.53 BR=7.004 IKR=0.06 VAR=31.15 RB=10 IRB=5.00E-06 RBM=4 RE=0.78 RC=0.656 XTB=0 EG=1.11 XTI=3 CJE=1.443E-11 VJE=0.733 MJE=0.3514 TF=6.04E-10 XTF=8.94 VTF=3.78 ITF=0.2711 PTF=0 CJC=3.287E-12 VJC=0.5444 MJC=0.3954 XCJC=0.6193 TR=0.00000011 CJS=0 VJS=0.75 MJS=0.333 FC=0.789 Vceo=45 Icrating=100m mfg=NXP)
.model BC847C_WCA NPN(IS=2.375E-14 NF=0.9925 ISE=5.16E-16 NE=1.3 BF={WC2(420,520,800,0)} IKF=0.09 VAF=49.77 NR=0.9931 ISC=7.064E-12 NC=1.78 BR=10.04 IKR=0.132 VAR=16 RB=10 IRB=5.00E-06 RBM=5 RE=0.653 RC=0.78 XTB=0 EG=1.11 XTI=3 CJE=1.132E-11 VJE=0.7685 MJE=0.3733 TF=4.258E-10 XTF=6.319 VTF=6.4 ITF=0.1845 PTF=0 CJC=3.379E-12 VJC=0.5444 MJC=0.3968 XCJC=0.6193 TR=0.000000095 CJS=0 VJS=0.75 MJS=0.333 FC=0.999 Vceo=45 Icrating=100m mfg=NXP)
.backanno
.end
