Version 4
SHEET 1 1812 1404
WIRE 160 -32 0 -32
WIRE 384 -32 224 -32
WIRE -272 112 -432 112
WIRE -96 112 -208 112
WIRE 0 112 0 -32
WIRE 0 112 -96 112
WIRE 64 112 0 112
WIRE 384 112 384 -32
WIRE 384 112 320 112
WIRE 496 112 384 112
WIRE 608 112 496 112
WIRE -432 128 -432 112
WIRE -96 128 -96 112
WIRE 496 128 496 112
WIRE 0 144 0 112
WIRE 384 144 384 112
WIRE 384 224 384 208
WIRE 496 224 496 208
WIRE 608 224 608 208
WIRE -432 240 -432 208
WIRE -96 240 -96 208
WIRE 0 240 0 208
WIRE 192 272 192 208
FLAG -432 240 0
FLAG -96 240 0
FLAG 0 240 0
FLAG 384 224 0
FLAG 496 224 0
FLAG 192 272 0
FLAG 608 224 0
SYMBOL PowerProducts\\LT1117-3.3 192 112 R0
SYMATTR InstName U1
SYMBOL voltage -432 112 R0
WINDOW 3 -206 100 Left 2
WINDOW 123 0 0 Left 0
WINDOW 39 -206 128 Left 2
SYMATTR InstName V1
SYMATTR Value SINE(5 25m 4k)
SYMATTR SpiceLine Rser=100m
SYMBOL cap -16 144 R0
SYMATTR InstName C1
SYMATTR Value 10µ
SYMATTR SpiceLine Rser=200m
SYMBOL cap 368 144 R0
SYMATTR InstName C2
SYMATTR Value 10µ
SYMATTR SpiceLine Rser=200m
SYMBOL res 480 112 R0
SYMATTR InstName R1
SYMATTR Value 25
SYMBOL res -112 112 R0
SYMATTR InstName R2
SYMATTR Value 10k
SYMBOL schottky 224 -48 R90
WINDOW 0 0 32 VBottom 2
WINDOW 3 32 32 VTop 2
SYMATTR InstName D1
SYMATTR Value VS-10BQ015-M3
SYMBOL voltage 608 112 R0
WINDOW 123 0 0 Left 0
WINDOW 39 0 0 Left 0
SYMATTR InstName V2
SYMATTR Value 3.3
SYMBOL schottky -272 128 R270
WINDOW 0 32 32 VTop 2
WINDOW 3 0 32 VBottom 2
SYMATTR InstName D2
SYMATTR Value CUS10S30
SYMATTR Prefix X
SYMBOL cap -16 288 R0
SYMATTR InstName C3
SYMATTR Value 100n
SYMATTR SpiceLine Rser=10
TEXT 784 -216 Left 2 !********************************\n* Copyright: *\n* Vishay Intertechnology, Inc. *\n********************************\n*95666VS-10BQ015-M3\n********************************\n* Model Diode *\n********************************************\n.MODEL VS-10BQ015-M3 D\n+ IS=3.0000E-6\n+ N=.85237\n+ RS=36.273E-3\n+ IKF=.91313\n+ XTI=2\n+ CJO=467.42E-12\n+ M=.47867\n+ VJ=.3905\n+ ISR=33.566E-6\n+ NR=4.9950\n+ BV=36\n+ IBV=10.000E-3\n*T_MEASURED=25\n.ENDS VS-10BQ015-M3
TEXT -250 304 Left 2 !.tran 10m startup
TEXT 800 464 Left 2 !*********************************************************************\n*  (C)  Copyright  TOSHIBA CORPORATION  2016\n*  Date                 :15/09/2016\n*  File Name            :CUS10S30.lib\n*  Part Number          :CUS10S30\n*  Parameter Ver.       :Ver.1\n*  Simulator            :PSpice\n*  Model Call Name      :CUS10S30\n*  TNOM                 :25 degree\n*  Pin Assign           :1=Anode 2=Cathode\n*********************************************************************\n.SUBCKT CUS10S30 1 2\nD1 11 2 CUS10S30\nJ1 1 11 11 j1\nR1 11 2 1E+15\n.MODEL CUS10S30 D (\n+ IS = 1.8338e-005\n+ N = 0.94847\n+ RS = 0.025763\n+ BV = 30\n+ IBV = 1E-10\n+ CJO = 1.3454e-010\n+ M = 0.66446\n+ VJ = 0.75954\n+ TT = 0\n+ TNOM = 25\n+ XTI = -20.7786 )\n.MODEL j1 NJF (\n+ VTO = -15\n+ BETA = 0.09713\n+ LAMBDA = 50.6489\n+ VTOTC = 0.1079\n+ TNOM = 25 )\n.ENDS
