Version 4
SHEET 1 904 2232
WIRE -16 -32 -80 -32
WIRE 96 -32 64 -32
WIRE -272 80 -304 80
WIRE -208 80 -272 80
WIRE -80 80 -80 -32
WIRE -80 80 -128 80
WIRE -16 80 -80 80
WIRE 96 80 96 -32
WIRE 96 80 64 80
WIRE 320 80 96 80
WIRE -272 96 -272 80
WIRE 112 144 -208 144
WIRE 176 144 112 144
WIRE 320 144 320 80
WIRE 320 144 256 144
WIRE 416 144 320 144
WIRE 592 144 480 144
WIRE 320 160 320 144
WIRE 592 160 592 144
WIRE 112 176 112 144
WIRE -1424 224 -1552 224
WIRE -1312 224 -1424 224
WIRE -1136 224 -1216 224
WIRE -896 224 -1136 224
WIRE -688 224 -896 224
WIRE -448 224 -688 224
WIRE -176 224 -448 224
WIRE -1136 240 -1136 224
WIRE -896 240 -896 224
WIRE -688 240 -688 224
WIRE -1552 256 -1552 224
WIRE -208 256 -208 144
WIRE -176 256 -208 256
WIRE 112 256 112 240
WIRE -1424 272 -1424 224
WIRE 320 272 320 224
WIRE 592 272 592 240
WIRE -176 288 -352 288
WIRE -1232 304 -1232 272
WIRE -1136 304 -1232 304
WIRE -896 320 -896 304
WIRE -448 320 -448 304
WIRE -352 320 -352 288
WIRE -352 320 -448 320
WIRE -304 320 -304 80
WIRE -176 320 -304 320
WIRE -1232 336 -1232 304
WIRE -1136 336 -1136 304
WIRE -448 336 -448 320
WIRE -176 352 -208 352
WIRE -1552 368 -1552 336
WIRE -1424 368 -1424 336
WIRE -544 384 -688 384
WIRE -512 384 -544 384
WIRE -208 384 -208 352
WIRE -208 384 -224 384
WIRE -176 384 -208 384
WIRE -688 416 -688 384
WIRE -208 416 -208 384
WIRE -176 416 -208 416
WIRE -1232 448 -1232 416
WIRE -1136 448 -1136 400
WIRE -448 464 -448 432
WIRE -688 528 -688 496
FLAG 320 272 0
FLAG 592 272 0
FLAG -224 384 0
FLAG -896 320 0
FLAG -272 176 0
FLAG 112 256 0
FLAG -448 320 Q1_Vc
FLAG -544 384 Q1_Vb
FLAG -448 464 0
FLAG 592 144 V_out
FLAG -1552 368 0
FLAG -688 528 0
FLAG -1424 368 0
FLAG -1232 448 0
FLAG -1136 448 0
FLAG -896 224 Vin_filt
FLAG -1552 224 Vin
SYMBOL res 576 144 R0
SYMATTR InstName R1
SYMATTR Value 18
SYMBOL ind 160 160 R270
WINDOW 0 32 56 VTop 2
WINDOW 3 5 56 VBottom 2
SYMATTR InstName L1
SYMATTR Value 470µ
SYMATTR SpiceLine Ipk=1.2 Rser=680m
SYMBOL cap 304 160 R0
SYMATTR InstName C1
SYMATTR Value 470µ
SYMATTR SpiceLine V=16
SYMBOL cap -912 240 R0
SYMATTR InstName C2
SYMATTR Value 47µ
SYMATTR SpiceLine V=35
SYMBOL res -112 64 R90
WINDOW 0 0 56 VBottom 2
WINDOW 3 32 56 VTop 2
SYMATTR InstName R2
SYMATTR Value 3k3
SYMATTR SpiceLine tol=1 pwr=600m
SYMBOL res -288 80 R0
SYMATTR InstName R3
SYMATTR Value 1k1
SYMATTR SpiceLine tol=1 pwr=600m
SYMBOL zener -672 304 R180
WINDOW 0 24 64 Left 2
WINDOW 3 -59 89 Left 2
SYMATTR InstName D1
SYMATTR Value BZX84C6V8L
SYMBOL npn -512 336 R0
SYMATTR InstName Q1
SYMATTR Value BC547B
SYMBOL res -464 208 R0
SYMATTR InstName R6
SYMATTR Value 47k
SYMBOL res 80 64 R90
WINDOW 0 0 56 VBottom 2
WINDOW 3 32 56 VTop 2
SYMATTR InstName R7
SYMATTR Value 1k
SYMATTR SpiceLine tol=5
SYMBOL res -672 400 R180
WINDOW 0 36 76 Left 2
WINDOW 3 36 40 Left 2
SYMATTR InstName R8
SYMATTR Value 10k
SYMBOL schottky 128 240 R180
WINDOW 0 24 64 Left 2
WINDOW 3 -158 29 Left 2
SYMATTR InstName D2
SYMATTR Value RB160MM-40
SYMATTR Description Diode
SYMATTR Type diode
SYMBOL res 80 -48 R90
WINDOW 0 0 56 VBottom 2
WINDOW 3 32 56 VTop 2
SYMATTR InstName R4
SYMATTR Value 750
SYMATTR SpiceLine tol=20 pwr=150m
SYMBOL AutoGenerated\\LM2575_TRANS -64 336 R0
SYMATTR InstName U1
SYMBOL schottky 416 160 R270
WINDOW 0 32 32 VTop 2
WINDOW 3 0 32 VBottom 2
SYMATTR InstName D3
SYMATTR Value 1N5819
SYMATTR Description Diode
SYMATTR Type diode
SYMBOL voltage -1552 240 R0
WINDOW 123 0 0 Left 0
WINDOW 3 34 77 Left 2
WINDOW 39 0 0 Left 0
SYMATTR Value 9
SYMATTR InstName V1
SYMBOL res -704 400 R0
SYMATTR InstName R5
SYMATTR Value 10k
SYMBOL TVSdiode -1440 272 R0
SYMATTR InstName D4
SYMBOL pmos -1312 272 R270
SYMATTR InstName M1
SYMBOL res -1248 320 R0
SYMATTR InstName R9
SYMATTR Value 1k
SYMBOL zener -1120 304 R180
WINDOW 0 24 64 Left 2
WINDOW 3 -139 34 Left 2
SYMATTR InstName D5
SYMATTR Value BZX84C10L
SYMBOL cap -1152 336 R0
SYMATTR InstName C3
SYMATTR Value 10n
TEXT 416 480 Left 2 !.tran 0 15m 0 100u startup
TEXT -48 -88 Left 2 ;trimmer pot
TEXT -1520 760 Left 2 !.SUBCKT FDD4243 2 1 3\n*Nom Temp=25 deg C\nDbody 5 7 DbodyMOD\nDbreak 7 11 DbreakMOD\nEbreak 5 11 17 7 -45\nLgate 1 9 4.64e-9\nLdrain 2 5 1e-9\nLsource 3 7 2.55e-9\nRLgate 1 9 46.4\nRLdrain 2 5 10\nRLsource 3 7 25.5\nRgate 9 6 4\nIt 7 17 1\nRbreak 17 7 RbreakMOD 1\n.MODEL RbreakMOD RES (TC1=7.8e-4 TC2=-2e-7)\n.MODEL DbodyMOD D (IS=5.5e-13 n=1 RS=9.5E-3 TRS1=1e-3 TRS2=2e-6\n+ CJO=3.8e-10 M=0.5 TT=19e-9 XTI=3)\n.MODEL DbreakMOD D (RS=0.5 TRS1=1e-3 TRS2=0)\nRdrain 5 16 RdrainMOD 27m\n.MODEL RdrainMOD RES (TC1=4e-3 TC2=2e-5)\nM_BSIM3 16 6 7 7 M_MOD W=1.37 L=1.37e-6 NRS=1\n.MODEL  M_MOD PMOS (LEVEL=7 VERSION=3.1 MOBMOD=3 CAPMOD=2 paramchk=1 NQSMOD=0\n*Process Parameters\n+ TOX=400e-10 ;Oxide thickness\n+ XJ=0.92e-6 ;Channel depth\n+ NCH=1.6e17 ;Channel concentration\n*Channel Current\n+ U0=250 vsat=1e5 drout=1\n+ DELTA=0.25 PSCBE2=0 RSH=2.4e-3\n*Threshold voltage\n+ VTH0=-1.6\n*Sub-threshold characteristics\n+ VOFF=-0.1 NFACTOR=1.4\n*Junction diodes and Capacitance\n+ LINT=0.31e-6 DLC=0.31e-6\n+ CGSO=220e-12 CGSL=0 CGDO=60e-12 CGDL=320e-12\n+ CJ=0 CF=0p CKAPPA=0.3\n* Temperature parameters\n+ KT1=-1 KT2=0 UA1=0.2e-9\n+ NJ=10)\n*FDD4243 Rev.A 11/2/2006_ST\n.ENDS\n.SUBCKT FDD4243_Thermal TH TL\n* FDD4243 thermal model added 1/17/2008 by SP\nCTHERM1 TH 6 1.2e-3\nCTHERM2 6 5 2.0e-3\nCTHERM3 5 4 2.8e-3\nCTHERM4 4 TL 1.8e-2\nRTHERM1 TH 6 1e-1\nRTHERM2 6 5  4.0e-1\nRTHERM3 5 4  8.1e-1\nRTHERM4 4 TL  1.0e-0\n.ENDS
